test_delta_IEEE_123_freq100%PV_imbalanced.glm
//123-meter generated by script
//Deltamode components added in
//Used to test various powerflow components in deltamode
//Modified from base version for this testing purpose

//#set pauseatexit=1
#set relax_naming_rules=1
#define rotor_convergence=0.001

clock {
	timezone "PST+8PDT";
	starttime '2010-01-01 12:00:00 PST';
	stoptime '2010-01-01 12:10:00 PST';
}
#set relax_naming_rules=1
#set suppress_repeat_messages=1
#set profiler=1
#set double_format=%+.12lg
#set complex_format=%+.12lg%+.12lg%c

//Deltamode declarations - global values
#set deltamode_maximumtime=5000000000000
#set deltamode_iteration_limit=10		//Iteration limit

module tape;

module powerflow {
	enable_subsecond_models true;
	deltamode_timestep 10 ms;
	line_capacitance true;
	all_powerflow_delta true;
	solver_method NR;
	maximum_voltage_error 1e-3;
};
module generators {
	enable_subsecond_models true;	//Enables deltamode for generator module
	deltamode_timestep 10.0 ms;	//Desired timestep for the generator module models
};

//include configurations
//#include "data_configurations_delta_123node.glm";

//Pure meters

object meter { 
    flags DELTAMODE;
    frequency_measure_type PLL;
 	object recorder {                            
		flags DELTAMODE;	//Must explicitly set the recorder to do deltamode
		file meters_outputs/meter3.csv;
		interval 1;	
		limit 100000000000;
		property measured_angle_A, measured_angle_B, measured_angle_C, measured_frequency_A, measured_frequency_B, measured_frequency_C, measured_frequency, measured_power.real, measured_power.imag, measured_power_A.real, measured_power_A.imag, measured_power_B.real, measured_power_B.imag, measured_power_C.real, measured_power_C.imag;
	};
	name meter_3;
	groupid metervolts;
	phases CN;
	nominal_voltage 2401.7771;
}

object inverter {
	phases ABCN;
	parent meter_3;
	inverter_efficiency .95;
	rated_power 6000;	
        generator_mode CONSTANT_PF;
        generator_status ONLINE;
        inverter_type PWM; 
        flags DELTAMODE;
        dynamic_model_mode PID;
        inverter_convergence_criterion 0.001;
        power_factor 1.0;
        object solar {
	        phases ABCN;
	        generator_status ONLINE;
	        generator_mode SUPPLY_DRIVEN;
	        panel_type SINGLE_CRYSTAL_SILICON;
	        area 250 ft^2;
	        tilt_angle 47.0;
	        efficiency 0.135;
	};
}

object meter { 
    flags DELTAMODE;
    frequency_measure_type PLL;
 	object recorder {                            
		flags DELTAMODE;	//Must explicitly set the recorder to do deltamode
		file meters_outputs/meter8.csv;
		interval 1;	
		limit 100000000000;
		property measured_angle_A, measured_angle_B, measured_angle_C, measured_frequency_A, measured_frequency_B, measured_frequency_C, measured_frequency, measured_power.real, measured_power.imag, measured_power_A.real, measured_power_A.imag, measured_power_B.real, measured_power_B.imag, measured_power_C.real, measured_power_C.imag;
	};
	name meter_8;
	groupid metervolts;
	phases ABCN;
	nominal_voltage 2401.7771;
}
object inverter {
	phases ABCN;
	parent meter_8;
	inverter_efficiency .95;
	rated_power 6000;	
        generator_mode CONSTANT_PF;
        generator_status ONLINE;
        inverter_type PWM; 
        flags DELTAMODE;
        dynamic_model_mode PID;
        inverter_convergence_criterion 0.001;
        power_factor 1.0;
        object solar {
	        phases ABCN;
	        generator_status ONLINE;
	        generator_mode SUPPLY_DRIVEN;
	        panel_type SINGLE_CRYSTAL_SILICON;
	        area 250 ft^2;
	        tilt_angle 47.0;
	        efficiency 0.135;
	};
}

object meter { 
    flags DELTAMODE;
    frequency_measure_type PLL;
 	object recorder {                            
		flags DELTAMODE;	//Must explicitly set the recorder to do deltamode
		file meters_outputs/meter13.csv;
		interval 1;	
		limit 100000000000;
		property measured_angle_A, measured_angle_B, measured_angle_C, measured_frequency_A, measured_frequency_B, measured_frequency_C, measured_frequency, measured_power.real, measured_power.imag, measured_power_A.real, measured_power_A.imag, measured_power_B.real, measured_power_B.imag, measured_power_C.real, measured_power_C.imag;
	};
	name meter_13;
	groupid metervolts;
	phases ABCN;
	nominal_voltage 2401.7771;
}

object inverter {
	phases ABCN;
	parent meter_13;
	inverter_efficiency .95;
	rated_power 6000;	
        generator_mode CONSTANT_PF;
        generator_status ONLINE;
        inverter_type PWM; 
        flags DELTAMODE;
        dynamic_model_mode PID;
        inverter_convergence_criterion 0.001;
        power_factor 1.0;
        object solar {
	        phases ABCN;
	        generator_status ONLINE;
	        generator_mode SUPPLY_DRIVEN;
	        panel_type SINGLE_CRYSTAL_SILICON;
	        area 250 ft^2;
	        tilt_angle 47.0;
	        efficiency 0.135;
	};
}

object meter { 
    flags DELTAMODE;
    frequency_measure_type PLL;
 	object recorder {                            
		flags DELTAMODE;	//Must explicitly set the recorder to do deltamode
		file meters_outputs/meter14.csv;
		interval 1;	
		limit 100000000000;
		property measured_angle_A, measured_angle_B, measured_angle_C, measured_frequency_A, measured_frequency_B, measured_frequency_C, measured_frequency, measured_power.real, measured_power.imag, measured_power_A.real, measured_power_A.imag, measured_power_B.real, measured_power_B.imag, measured_power_C.real, measured_power_C.imag;
	};
	name meter_14;
	groupid metervolts;
	phases AN;
	nominal_voltage 2401.7771;
}

object inverter {
	phases ABCN;
	parent meter_14;
	inverter_efficiency .95;
	rated_power 6000;	
        generator_mode CONSTANT_PF;
        generator_status ONLINE;
        inverter_type PWM; 
        flags DELTAMODE;
        dynamic_model_mode PID;
        inverter_convergence_criterion 0.001;
        power_factor 1.0;
        object solar {
	        phases ABCN;
	        generator_status ONLINE;
	        generator_mode SUPPLY_DRIVEN;
	        panel_type SINGLE_CRYSTAL_SILICON;
	        area 250 ft^2;
	        tilt_angle 47.0;
	        efficiency 0.135;
	};
}

object meter { 
    flags DELTAMODE;
    frequency_measure_type PLL;
 	object recorder {                            
		flags DELTAMODE;	//Must explicitly set the recorder to do deltamode
		file meters_outputs/meter15.csv;
		interval 1;	
		limit 100000000000;
		property measured_angle_A, measured_angle_B, measured_angle_C, measured_frequency_A, measured_frequency_B, measured_frequency_C, measured_frequency, measured_power.real, measured_power.imag, measured_power_A.real, measured_power_A.imag, measured_power_B.real, measured_power_B.imag, measured_power_C.real, measured_power_C.imag;
	};
	name meter_15;
	groupid metervolts;
	phases CN;
	nominal_voltage 2401.7771;
}

object inverter {
	phases ABCN;
	parent meter_15;
	inverter_efficiency .95;
	rated_power 6000;	
        generator_mode CONSTANT_PF;
        generator_status ONLINE;
        inverter_type PWM; 
        flags DELTAMODE;
        dynamic_model_mode PID;
        inverter_convergence_criterion 0.001;
        power_factor 1.0;
        object solar {
	        phases ABCN;
	        generator_status ONLINE;
	        generator_mode SUPPLY_DRIVEN;
	        panel_type SINGLE_CRYSTAL_SILICON;
	        area 250 ft^2;
	        tilt_angle 47.0;
	        efficiency 0.135;
	};
}

object meter { 
    flags DELTAMODE;
    frequency_measure_type PLL;
 	object recorder {                            
		flags DELTAMODE;	//Must explicitly set the recorder to do deltamode
		file meters_outputs/meter18.csv;
		interval 1;	
		limit 100000000000;
		property measured_angle_A, measured_angle_B, measured_angle_C, measured_frequency_A, measured_frequency_B, measured_frequency_C, measured_frequency, measured_power.real, measured_power.imag, measured_power_A.real, measured_power_A.imag, measured_power_B.real, measured_power_B.imag, measured_power_C.real, measured_power_C.imag;
	};
	name meter_18;
	groupid metervolts;
	phases ABCN;
	nominal_voltage 2401.7771;
}

object inverter {
	phases ABCN;
	parent meter_18;
	inverter_efficiency .95;
	rated_power 6000;	
        generator_mode CONSTANT_PF;
        generator_status ONLINE;
        inverter_type PWM; 
        flags DELTAMODE;
        dynamic_model_mode PID;
        inverter_convergence_criterion 0.001;
        power_factor 1.0;
        object solar {
	        phases ABCN;
	        generator_status ONLINE;
	        generator_mode SUPPLY_DRIVEN;
	        panel_type SINGLE_CRYSTAL_SILICON;
	        area 250 ft^2;
	        tilt_angle 47.0;
	        efficiency 0.135;
	};
}

object meter { 
    flags DELTAMODE;
    frequency_measure_type PLL;
 	object recorder {                            
		flags DELTAMODE;	//Must explicitly set the recorder to do deltamode
		file meters_outputs/meter21.csv;
		interval 1;	
		limit 100000000000;
		property measured_angle_A, measured_angle_B, measured_angle_C, measured_frequency_A, measured_frequency_B, measured_frequency_C, measured_frequency, measured_power.real, measured_power.imag, measured_power_A.real, measured_power_A.imag, measured_power_B.real, measured_power_B.imag, measured_power_C.real, measured_power_C.imag;
	};
	name meter_21;
	groupid metervolts;
	phases ABCN;
	nominal_voltage 2401.7771;
}

object inverter {
	phases ABCN;
	parent meter_21;
	inverter_efficiency .95;
	rated_power 6000;	
        generator_mode CONSTANT_PF;
        generator_status ONLINE;
        inverter_type PWM; 
        flags DELTAMODE;
        dynamic_model_mode PID;
        inverter_convergence_criterion 0.001;
        power_factor 1.0;
        object solar {
	        phases ABCN;
	        generator_status ONLINE;
	        generator_mode SUPPLY_DRIVEN;
	        panel_type SINGLE_CRYSTAL_SILICON;
	        area 250 ft^2;
	        tilt_angle 47.0;
	        efficiency 0.135;
	};
}


object meter { 
    flags DELTAMODE;
    frequency_measure_type PLL;
 	object recorder {                            
		flags DELTAMODE;	//Must explicitly set the recorder to do deltamode
		file meters_outputs/meter23.csv;
		interval 1;	
		limit 100000000000;
		property measured_angle_A, measured_angle_B, measured_angle_C, measured_frequency_A, measured_frequency_B, measured_frequency_C, measured_frequency, measured_power.real, measured_power.imag, measured_power_A.real, measured_power_A.imag, measured_power_B.real, measured_power_B.imag, measured_power_C.real, measured_power_C.imag;
	};
	name meter_23;
	groupid metervolts;
	phases ABCN;
	nominal_voltage 2401.7771;
}

object inverter {
	phases ABCN;
	parent meter_23;
	inverter_efficiency .95;
	rated_power 6000;	
        generator_mode CONSTANT_PF;
        generator_status ONLINE;
        inverter_type PWM; 
        flags DELTAMODE;
        dynamic_model_mode PID;
        inverter_convergence_criterion 0.001;
        power_factor 1.0;
        object solar {
	        phases ABCN;
	        generator_status ONLINE;
	        generator_mode SUPPLY_DRIVEN;
	        panel_type SINGLE_CRYSTAL_SILICON;
	        area 250 ft^2;
	        tilt_angle 47.0;
	        efficiency 0.135;
	};
}

object meter { 
    flags DELTAMODE;
    frequency_measure_type PLL;
 	object recorder {                            
		flags DELTAMODE;	//Must explicitly set the recorder to do deltamode
		file meters_outputs/meter25.csv;
		interval 1;	
		limit 100000000000;
		property measured_angle_A, measured_angle_B, measured_angle_C, measured_frequency_A, measured_frequency_B, measured_frequency_C, measured_frequency, measured_power.real, measured_power.imag, measured_power_A.real, measured_power_A.imag, measured_power_B.real, measured_power_B.imag, measured_power_C.real, measured_power_C.imag;
	};
	name meter_25;
	groupid metervolts;
	phases ABCN;
	nominal_voltage 2401.7771;
}
object inverter {
	phases ABCN;
	parent meter_25;
	inverter_efficiency .95;
	rated_power 6000;	
        generator_mode CONSTANT_PF;
        generator_status ONLINE;
        inverter_type PWM; 
        flags DELTAMODE;
        dynamic_model_mode PID;
        inverter_convergence_criterion 0.001;
        power_factor 1.0;
        object solar {
	        phases ABCN;
	        generator_status ONLINE;
	        generator_mode SUPPLY_DRIVEN;
	        panel_type SINGLE_CRYSTAL_SILICON;
	        area 250 ft^2;
	        tilt_angle 47.0;
	        efficiency 0.135;
	};
}

object meter { 
    flags DELTAMODE;
    frequency_measure_type PLL;
 	object recorder {                            
		flags DELTAMODE;	//Must explicitly set the recorder to do deltamode
		file meters_outputs/meter26.csv;
		interval 1;	
		limit 100000000000;
		property measured_angle_A, measured_angle_B, measured_angle_C, measured_frequency_A, measured_frequency_B, measured_frequency_C, measured_frequency, measured_power.real, measured_power.imag, measured_power_A.real, measured_power_A.imag, measured_power_B.real, measured_power_B.imag, measured_power_C.real, measured_power_C.imag;
	};
	name meter_26;
	groupid metervolts;
	phases ACN;
	nominal_voltage 2401.7771;
}

object inverter {
	phases ABCN;
	parent meter_26;
	inverter_efficiency .95;
	rated_power 6000;	
        generator_mode CONSTANT_PF;
        generator_status ONLINE;
        inverter_type PWM; 
        flags DELTAMODE;
        dynamic_model_mode PID;
        inverter_convergence_criterion 0.001;
        power_factor 1.0;
        object solar {
	        phases ABCN;
	        generator_status ONLINE;
	        generator_mode SUPPLY_DRIVEN;
	        panel_type SINGLE_CRYSTAL_SILICON;
	        area 250 ft^2;
	        tilt_angle 47.0;
	        efficiency 0.135;
	};
}

object meter { 
    flags DELTAMODE;
    frequency_measure_type PLL;
 	object recorder {                            
		flags DELTAMODE;	//Must explicitly set the recorder to do deltamode
		file meters_outputs/meter27.csv;
		interval 1;	
		limit 100000000000;
		property measured_angle_A, measured_angle_B, measured_angle_C, measured_frequency_A, measured_frequency_B, measured_frequency_C, measured_frequency, measured_power.real, measured_power.imag, measured_power_A.real, measured_power_A.imag, measured_power_B.real, measured_power_B.imag, measured_power_C.real, measured_power_C.imag;
	};
	name meter_27;
	groupid metervolts;
	phases ACN;
	nominal_voltage 2401.7771;
}
object inverter {
	phases ABCN;
	parent meter_27;
	inverter_efficiency .95;
	rated_power 6000;	
        generator_mode CONSTANT_PF;
        generator_status ONLINE;
        inverter_type PWM; 
        flags DELTAMODE;
        dynamic_model_mode PID;
        inverter_convergence_criterion 0.001;
        power_factor 1.0;
        object solar {
	        phases ABCN;
	        generator_status ONLINE;
	        generator_mode SUPPLY_DRIVEN;
	        panel_type SINGLE_CRYSTAL_SILICON;
	        area 250 ft^2;
	        tilt_angle 47.0;
	        efficiency 0.135;
	};
}


object meter { 
    flags DELTAMODE;
    frequency_measure_type PLL;
 	object recorder {                            
		flags DELTAMODE;	//Must explicitly set the recorder to do deltamode
		file meters_outputs/meter36.csv;
		interval 1;	
		limit 100000000000;
		property measured_angle_A, measured_angle_B, measured_angle_C, measured_frequency_A, measured_frequency_B, measured_frequency_C, measured_frequency, measured_power.real, measured_power.imag, measured_power_A.real, measured_power_A.imag, measured_power_B.real, measured_power_B.imag, measured_power_C.real, measured_power_C.imag;
	};
	name meter_36;
	groupid metervolts;
	phases ABN;
	nominal_voltage 2401.7771;
}
object inverter {
	phases ABCN;
	parent meter_36;
	inverter_efficiency .95;
	rated_power 6000;	
        generator_mode CONSTANT_PF;
        generator_status ONLINE;
        inverter_type PWM; 
        flags DELTAMODE;
        dynamic_model_mode PID;
        inverter_convergence_criterion 0.001;
        power_factor 1.0;
        object solar {
	        phases ABCN;
	        generator_status ONLINE;
	        generator_mode SUPPLY_DRIVEN;
	        panel_type SINGLE_CRYSTAL_SILICON;
	        area 250 ft^2;
	        tilt_angle 47.0;
	        efficiency 0.135;
	};
}

object meter { 
    flags DELTAMODE;
    frequency_measure_type PLL;
 	object recorder {                            
		flags DELTAMODE;	//Must explicitly set the recorder to do deltamode
		file meters_outputs/meter40.csv;
		interval 1;	
		limit 100000000000;
		property measured_angle_A, measured_angle_B, measured_angle_C, measured_frequency_A, measured_frequency_B, measured_frequency_C, measured_frequency, measured_power.real, measured_power.imag, measured_power_A.real, measured_power_A.imag, measured_power_B.real, measured_power_B.imag, measured_power_C.real, measured_power_C.imag;
	};
	name meter_40;
	groupid metervolts;
	phases ABCN;
	nominal_voltage 2401.7771;
}

object inverter {
	phases ABCN;
	parent meter_40;
	inverter_efficiency .95;
	rated_power 6000;	
        generator_mode CONSTANT_PF;
        generator_status ONLINE;
        inverter_type PWM; 
        flags DELTAMODE;
        dynamic_model_mode PID;
        inverter_convergence_criterion 0.001;
        power_factor 1.0;
        object solar {
	        phases ABCN;
	        generator_status ONLINE;
	        generator_mode SUPPLY_DRIVEN;
	        panel_type SINGLE_CRYSTAL_SILICON;
	        area 250 ft^2;
	        tilt_angle 47.0;
	        efficiency 0.135;
	};
}

object meter { 
    flags DELTAMODE;
    frequency_measure_type PLL;
 	object recorder {                            
		flags DELTAMODE;	//Must explicitly set the recorder to do deltamode
		file meters_outputs/meter44.csv;
		interval 1;	
		limit 100000000000;
		property measured_angle_A, measured_angle_B, measured_angle_C, measured_frequency_A, measured_frequency_B, measured_frequency_C, measured_frequency, measured_power.real, measured_power.imag, measured_power_A.real, measured_power_A.imag, measured_power_B.real, measured_power_B.imag, measured_power_C.real, measured_power_C.imag;
	};
	name meter_44;
	groupid metervolts;
	phases ABCN;
	nominal_voltage 2401.7771;
}
object inverter {
	phases ABCN;
	parent meter_44;
	inverter_efficiency .95;
	rated_power 6000;	
        generator_mode CONSTANT_PF;
        generator_status ONLINE;
        inverter_type PWM; 
        flags DELTAMODE;
        dynamic_model_mode PID;
        inverter_convergence_criterion 0.001;
        power_factor 1.0;
        object solar {
	        phases ABCN;
	        generator_status ONLINE;
	        generator_mode SUPPLY_DRIVEN;
	        panel_type SINGLE_CRYSTAL_SILICON;
	        area 250 ft^2;
	        tilt_angle 47.0;
	        efficiency 0.135;
	};
}


object meter { 
    flags DELTAMODE;
    frequency_measure_type PLL;
 	object recorder {                            
		flags DELTAMODE;	//Must explicitly set the recorder to do deltamode
		file meters_outputs/meter54.csv;
		interval 1;	
		limit 100000000000;
		property measured_angle_A, measured_angle_B, measured_angle_C, measured_frequency_A, measured_frequency_B, measured_frequency_C, measured_frequency, measured_power.real, measured_power.imag, measured_power_A.real, measured_power_A.imag, measured_power_B.real, measured_power_B.imag, measured_power_C.real, measured_power_C.imag;
	};
	name meter_54;
	groupid metervolts;
	phases ABCN;
	nominal_voltage 2401.7771;
}
object inverter {
	phases ABCN;
	parent meter_54;
	inverter_efficiency .95;
	rated_power 6000;	
        generator_mode CONSTANT_PF;
        generator_status ONLINE;
        inverter_type PWM; 
        flags DELTAMODE;
        dynamic_model_mode PID;
        inverter_convergence_criterion 0.001;
        power_factor 1.0;
        object solar {
	        phases ABCN;
	        generator_status ONLINE;
	        generator_mode SUPPLY_DRIVEN;
	        panel_type SINGLE_CRYSTAL_SILICON;
	        area 250 ft^2;
	        tilt_angle 47.0;
	        efficiency 0.135;
	};
}


object meter { 
    flags DELTAMODE;
    frequency_measure_type PLL;
 	object recorder {                            
		flags DELTAMODE;	//Must explicitly set the recorder to do deltamode
		file meters_outputs/meter57.csv;
		interval 1;	
		limit 100000000000;
		property measured_angle_A, measured_angle_B, measured_angle_C, measured_frequency_A, measured_frequency_B, measured_frequency_C, measured_frequency, measured_power.real, measured_power.imag, measured_power_A.real, measured_power_A.imag, measured_power_B.real, measured_power_B.imag, measured_power_C.real, measured_power_C.imag;
	};
	name meter_57;
	groupid metervolts;
	phases ABCN;
	nominal_voltage 2401.7771;
}
object inverter {
	phases ABCN;
	parent meter_57;
	inverter_efficiency .95;
	rated_power 6000;	
        generator_mode CONSTANT_PF;
        generator_status ONLINE;
        inverter_type PWM; 
        flags DELTAMODE;
        dynamic_model_mode PID;
        inverter_convergence_criterion 0.001;
        power_factor 1.0;
        object solar {
	        phases ABCN;
	        generator_status ONLINE;
	        generator_mode SUPPLY_DRIVEN;
	        panel_type SINGLE_CRYSTAL_SILICON;
	        area 250 ft^2;
	        tilt_angle 47.0;
	        efficiency 0.135;
	};
}


object meter { 
    flags DELTAMODE;
    frequency_measure_type PLL;
 	object recorder {                            
		flags DELTAMODE;	//Must explicitly set the recorder to do deltamode
		file meters_outputs/meter61.csv;
		interval 1;	
		limit 100000000000;
		property measured_angle_A, measured_angle_B, measured_angle_C, measured_frequency_A, measured_frequency_B, measured_frequency_C, measured_frequency, measured_power.real, measured_power.imag, measured_power_A.real, measured_power_A.imag, measured_power_B.real, measured_power_B.imag, measured_power_C.real, measured_power_C.imag;
	};
	name meter_61;
	groupid metervolts;
	phases ABCN;
	nominal_voltage 2401.7771;
}
object inverter {
	phases ABCN;
	parent meter_61;
	inverter_efficiency .95;
	rated_power 6000;	
        generator_mode CONSTANT_PF;
        generator_status ONLINE;
        inverter_type PWM; 
        flags DELTAMODE;
        dynamic_model_mode PID;
        inverter_convergence_criterion 0.001;
        power_factor 1.0;
        object solar {
	        phases ABCN;
	        generator_status ONLINE;
	        generator_mode SUPPLY_DRIVEN;
	        panel_type SINGLE_CRYSTAL_SILICON;
	        area 250 ft^2;
	        tilt_angle 47.0;
	        efficiency 0.135;
	};
}

object meter { 
    flags DELTAMODE;
    frequency_measure_type PLL;
 	object recorder {                            
		flags DELTAMODE;	//Must explicitly set the recorder to do deltamode
		file meters_outputs/meter67.csv;
		interval 1;	
		limit 100000000000;
		property measured_angle_A, measured_angle_B, measured_angle_C, measured_frequency_A, measured_frequency_B, measured_frequency_C, measured_frequency, measured_power.real, measured_power.imag, measured_power_A.real, measured_power_A.imag, measured_power_B.real, measured_power_B.imag, measured_power_C.real, measured_power_C.imag;
	};
	name meter_67;
	groupid metervolts;
	phases ABCN;
	nominal_voltage 2401.7771;
}

object inverter {
	phases ABCN;
	parent meter_67;
	inverter_efficiency .95;
	rated_power 6000;	
        generator_mode CONSTANT_PF;
        generator_status ONLINE;
        inverter_type PWM; 
        flags DELTAMODE;
        dynamic_model_mode PID;
        inverter_convergence_criterion 0.001;
        power_factor 1.0;
        object solar {
	        phases ABCN;
	        generator_status ONLINE;
	        generator_mode SUPPLY_DRIVEN;
	        panel_type SINGLE_CRYSTAL_SILICON;
	        area 250 ft^2;
	        tilt_angle 47.0;
	        efficiency 0.135;
	};
}

object meter { 
    flags DELTAMODE;
    frequency_measure_type PLL;
 	object recorder {                            
		flags DELTAMODE;	//Must explicitly set the recorder to do deltamode
		file meters_outputs/meter72.csv;
		interval 1;	
		limit 100000000000;
		property measured_angle_A, measured_angle_B, measured_angle_C, measured_frequency_A, measured_frequency_B, measured_frequency_C, measured_frequency, measured_power.real, measured_power.imag, measured_power_A.real, measured_power_A.imag, measured_power_B.real, measured_power_B.imag, measured_power_C.real, measured_power_C.imag;
	};
	name meter_72;
	groupid metervolts;
	phases ABCN;
	nominal_voltage 2401.7771;
}

object inverter {
	phases ABCN;
	parent meter_72;
	inverter_efficiency .95;
	rated_power 6000;	
        generator_mode CONSTANT_PF;
        generator_status ONLINE;
        inverter_type PWM; 
        flags DELTAMODE;
        dynamic_model_mode PID;
        inverter_convergence_criterion 0.001;
        power_factor 1.0;
        object solar {
	        phases ABCN;
	        generator_status ONLINE;
	        generator_mode SUPPLY_DRIVEN;
	        panel_type SINGLE_CRYSTAL_SILICON;
	        area 250 ft^2;
	        tilt_angle 47.0;
	        efficiency 0.135;
	};
}

object meter { 
    flags DELTAMODE;
    frequency_measure_type PLL;
 	object recorder {                            
		flags DELTAMODE;	//Must explicitly set the recorder to do deltamode
		file meters_outputs/meter78.csv;
		interval 1;	
		limit 100000000000;
		property measured_angle_A, measured_angle_B, measured_angle_C, measured_frequency_A, measured_frequency_B, measured_frequency_C, measured_frequency, measured_power.real, measured_power.imag, measured_power_A.real, measured_power_A.imag, measured_power_B.real, measured_power_B.imag, measured_power_C.real, measured_power_C.imag;
	};
	name meter_78;
	groupid metervolts;
	phases ABCN;
	nominal_voltage 2401.7771;
}
object inverter {
	phases ABCN;
	parent meter_78;
	inverter_efficiency .95;
	rated_power 6000;	
        generator_mode CONSTANT_PF;
        generator_status ONLINE;
        inverter_type PWM; 
        flags DELTAMODE;
        dynamic_model_mode PID;
        inverter_convergence_criterion 0.001;
        power_factor 1.0;
        object solar {
	        phases ABCN;
	        generator_status ONLINE;
	        generator_mode SUPPLY_DRIVEN;
	        panel_type SINGLE_CRYSTAL_SILICON;
	        area 250 ft^2;
	        tilt_angle 47.0;
	        efficiency 0.135;
	};
}

object meter { 
    flags DELTAMODE;
    frequency_measure_type PLL;
 	object recorder {                            
		flags DELTAMODE;	//Must explicitly set the recorder to do deltamode
		file meters_outputs/meter81.csv;
		interval 1;	
		limit 100000000000;
		property measured_angle_A, measured_angle_B, measured_angle_C, measured_frequency_A, measured_frequency_B, measured_frequency_C, measured_frequency, measured_power.real, measured_power.imag, measured_power_A.real, measured_power_A.imag, measured_power_B.real, measured_power_B.imag, measured_power_C.real, measured_power_C.imag;
	};
	name meter_81;
	groupid metervolts;
	phases ABCN;
	nominal_voltage 2401.7771;
}
object inverter {
	phases ABCN;
	parent meter_81;
	inverter_efficiency .95;
	rated_power 6000;	
        generator_mode CONSTANT_PF;
        generator_status ONLINE;
        inverter_type PWM; 
        flags DELTAMODE;
        dynamic_model_mode PID;
        inverter_convergence_criterion 0.001;
        power_factor 1.0;
        object solar {
	        phases ABCN;
	        generator_status ONLINE;
	        generator_mode SUPPLY_DRIVEN;
	        panel_type SINGLE_CRYSTAL_SILICON;
	        area 250 ft^2;
	        tilt_angle 47.0;
	        efficiency 0.135;
	};
}

object meter { 
    flags DELTAMODE;
    frequency_measure_type PLL;
 	object recorder {                            
		flags DELTAMODE;	//Must explicitly set the recorder to do deltamode
		file meters_outputs/meter89.csv;
		interval 1;	
		limit 100000000000;
		property measured_angle_A, measured_angle_B, measured_angle_C, measured_frequency_A, measured_frequency_B, measured_frequency_C, measured_frequency, measured_power.real, measured_power.imag, measured_power_A.real, measured_power_A.imag, measured_power_B.real, measured_power_B.imag, measured_power_C.real, measured_power_C.imag;
	};
	name meter_89;
	groupid metervolts;
	phases ABCN;
	nominal_voltage 2401.7771;
}
object inverter {
	phases ABCN;
	parent meter_89;
	inverter_efficiency .95;
	rated_power 6000;	
        generator_mode CONSTANT_PF;
        generator_status ONLINE;
        inverter_type PWM; 
        flags DELTAMODE;
        dynamic_model_mode PID;
        inverter_convergence_criterion 0.001;
        power_factor 1.0;
        object solar {
	        phases ABCN;
	        generator_status ONLINE;
	        generator_mode SUPPLY_DRIVEN;
	        panel_type SINGLE_CRYSTAL_SILICON;
	        area 250 ft^2;
	        tilt_angle 47.0;
	        efficiency 0.135;
	};
}


object meter { 
    flags DELTAMODE;
    frequency_measure_type PLL;
 	object recorder {                            
		flags DELTAMODE;	//Must explicitly set the recorder to do deltamode
		file meters_outputs/meter91.csv;
		interval 1;	
		limit 100000000000;
		property measured_angle_A, measured_angle_B, measured_angle_C, measured_frequency_A, measured_frequency_B, measured_frequency_C, measured_frequency, measured_power.real, measured_power.imag, measured_power_A.real, measured_power_A.imag, measured_power_B.real, measured_power_B.imag, measured_power_C.real, measured_power_C.imag;
	};
	name meter_91;
	groupid metervolts;
	phases ABCN;
	nominal_voltage 2401.7771;
}


object inverter {
	phases ABCN;
	parent meter_91;
	inverter_efficiency .95;
	rated_power 6000;	
        generator_mode CONSTANT_PF;
        generator_status ONLINE;
        inverter_type PWM; 
        flags DELTAMODE;
        dynamic_model_mode PID;
        inverter_convergence_criterion 0.001;
        power_factor 1.0;
        object solar {
	        phases ABCN;
	        generator_status ONLINE;
	        generator_mode SUPPLY_DRIVEN;
	        panel_type SINGLE_CRYSTAL_SILICON;
	        area 250 ft^2;
	        tilt_angle 47.0;
	        efficiency 0.135;
	};
}

object meter { 
    flags DELTAMODE;
    frequency_measure_type PLL;
 	object recorder {                            
		flags DELTAMODE;	//Must explicitly set the recorder to do deltamode
		file meters_outputs/meter93.csv;
		interval 1;	
		limit 100000000000;
		property measured_angle_A, measured_angle_B, measured_angle_C, measured_frequency_A, measured_frequency_B, measured_frequency_C, measured_frequency, measured_power.real, measured_power.imag, measured_power_A.real, measured_power_A.imag, measured_power_B.real, measured_power_B.imag, measured_power_C.real, measured_power_C.imag;
	};
	name meter_93;
	groupid metervolts;
	phases ABCN;
	nominal_voltage 2401.7771;
}

object inverter {
	phases ABCN;
	parent meter_93;
	inverter_efficiency .95;
	rated_power 6000;	
        generator_mode CONSTANT_PF;
        generator_status ONLINE;
        inverter_type PWM; 
        flags DELTAMODE;
        dynamic_model_mode PID;
        inverter_convergence_criterion 0.001;
        power_factor 1.0;
        object solar {
	        phases ABCN;
	        generator_status ONLINE;
	        generator_mode SUPPLY_DRIVEN;
	        panel_type SINGLE_CRYSTAL_SILICON;
	        area 250 ft^2;
	        tilt_angle 47.0;
	        efficiency 0.135;
	};
}

object meter { 
    flags DELTAMODE;
    frequency_measure_type PLL;
 	object recorder {                            
		flags DELTAMODE;	//Must explicitly set the recorder to do deltamode
		file meters_outputs/meter97.csv;
		interval 1;	
		limit 100000000000;
		property measured_angle_A, measured_angle_B, measured_angle_C, measured_frequency_A, measured_frequency_B, measured_frequency_C, measured_frequency, measured_power.real, measured_power.imag, measured_power_A.real, measured_power_A.imag, measured_power_B.real, measured_power_B.imag, measured_power_C.real, measured_power_C.imag;
	};
	name meter_97;
	groupid metervolts;
	phases ABCN;
	nominal_voltage 2401.7771;
}
object inverter {
	phases ABCN;
	parent meter_97;
	inverter_efficiency .95;
	rated_power 6000;	
        generator_mode CONSTANT_PF;
        generator_status ONLINE;
        inverter_type PWM; 
        flags DELTAMODE;
        dynamic_model_mode PID;
        inverter_convergence_criterion 0.001;
        power_factor 1.0;
        object solar {
	        phases ABCN;
	        generator_status ONLINE;
	        generator_mode SUPPLY_DRIVEN;
	        panel_type SINGLE_CRYSTAL_SILICON;
	        area 250 ft^2;
	        tilt_angle 47.0;
	        efficiency 0.135;
	};
}

object meter { 
    flags DELTAMODE;
    frequency_measure_type PLL;
 	object recorder {                            
		flags DELTAMODE;	//Must explicitly set the recorder to do deltamode
		file meters_outputs/meter101.csv;
		interval 1;	
		limit 100000000000;
		property measured_angle_A, measured_angle_B, measured_angle_C, measured_frequency_A, measured_frequency_B, measured_frequency_C, measured_frequency, measured_power.real, measured_power.imag, measured_power_A.real, measured_power_A.imag, measured_power_B.real, measured_power_B.imag, measured_power_C.real, measured_power_C.imag;
	};
	name meter_101;
	groupid metervolts;
	phases ABCN;
	nominal_voltage 2401.7771;
}

object inverter {
	phases ABCN;
	parent meter_101;
	inverter_efficiency .95;
	rated_power 6000;	
        generator_mode CONSTANT_PF;
        generator_status ONLINE;
        inverter_type PWM; 
        flags DELTAMODE;
        dynamic_model_mode PID;
        inverter_convergence_criterion 0.001;
        power_factor 1.0;
        object solar {
	        phases ABCN;
	        generator_status ONLINE;
	        generator_mode SUPPLY_DRIVEN;
	        panel_type SINGLE_CRYSTAL_SILICON;
	        area 250 ft^2;
	        tilt_angle 47.0;
	        efficiency 0.135;
	};
}

object meter { 
    flags DELTAMODE;
    frequency_measure_type PLL;
 	object recorder {                            
		flags DELTAMODE;	//Must explicitly set the recorder to do deltamode
		file meters_outputs/meter105.csv;
		interval 1;	
		limit 100000000000;
		property measured_angle_A, measured_angle_B, measured_angle_C, measured_frequency_A, measured_frequency_B, measured_frequency_C, measured_frequency, measured_power.real, measured_power.imag, measured_power_A.real, measured_power_A.imag, measured_power_B.real, measured_power_B.imag, measured_power_C.real, measured_power_C.imag;
	};
	name meter_105;
	groupid metervolts;
	phases ABCN;
	nominal_voltage 2401.7771;
}
object inverter {
	phases ABCN;
	parent meter_105;
	inverter_efficiency .95;
	rated_power 6000;	
        generator_mode CONSTANT_PF;
        generator_status ONLINE;
        inverter_type PWM; 
        flags DELTAMODE;
        dynamic_model_mode PID;
        inverter_convergence_criterion 0.001;
        power_factor 1.0;
        object solar {
	        phases ABCN;
	        generator_status ONLINE;
	        generator_mode SUPPLY_DRIVEN;
	        panel_type SINGLE_CRYSTAL_SILICON;
	        area 250 ft^2;
	        tilt_angle 47.0;
	        efficiency 0.135;
	};
}



object meter { 
    flags DELTAMODE;
    frequency_measure_type PLL;
 	object recorder {                            
		flags DELTAMODE;	//Must explicitly set the recorder to do deltamode
		file meters_outputs/meter108.csv;
		interval 1;	
		limit 100000000000;
		property measured_angle_A, measured_angle_B, measured_angle_C, measured_frequency_A, measured_frequency_B, measured_frequency_C, measured_frequency, measured_power.real, measured_power.imag, measured_power_A.real, measured_power_A.imag, measured_power_B.real, measured_power_B.imag, measured_power_C.real, measured_power_C.imag;
	};
	name meter_108;
	groupid metervolts;
	phases ABCN;
	nominal_voltage 2401.7771;
}
object inverter {
	phases ABCN;
	parent meter_108;
	inverter_efficiency .95;
	rated_power 6000;	
        generator_mode CONSTANT_PF;
        generator_status ONLINE;
        inverter_type PWM; 
        flags DELTAMODE;
        dynamic_model_mode PID;
        inverter_convergence_criterion 0.001;
        power_factor 1.0;
        object solar {
	        phases ABCN;
	        generator_status ONLINE;
	        generator_mode SUPPLY_DRIVEN;
	        panel_type SINGLE_CRYSTAL_SILICON;
	        area 250 ft^2;
	        tilt_angle 47.0;
	        efficiency 0.135;
	};
}

object meter { 
    flags DELTAMODE;
    frequency_measure_type PLL;
 	object recorder {                            
		flags DELTAMODE;	//Must explicitly set the recorder to do deltamode
		file meters_outputs/meter110.csv;
		interval 1;	
		limit 100000000000;
		property measured_angle_A, measured_angle_B, measured_angle_C, measured_frequency_A, measured_frequency_B, measured_frequency_C, measured_frequency, measured_power.real, measured_power.imag, measured_power_A.real, measured_power_A.imag, measured_power_B.real, measured_power_B.imag, measured_power_C.real, measured_power_C.imag;
	};
	name meter_110;
	groupid metervolts;
	phases AN;
	nominal_voltage 2401.7771;
}
object inverter {
	phases ABCN;
	parent meter_110;
	inverter_efficiency .95;
	rated_power 6000;	
        generator_mode CONSTANT_PF;
        generator_status ONLINE;
        inverter_type PWM; 
        flags DELTAMODE;
        dynamic_model_mode PID;
        inverter_convergence_criterion 0.001;
        power_factor 1.0;
        object solar {
	        phases ABCN;
	        generator_status ONLINE;
	        generator_mode SUPPLY_DRIVEN;
	        panel_type SINGLE_CRYSTAL_SILICON;
	        area 250 ft^2;
	        tilt_angle 47.0;
	        efficiency 0.135;
	};
}

object meter { 
    flags DELTAMODE;
    frequency_measure_type PLL;
 	object recorder {                            
		flags DELTAMODE;	//Must explicitly set the recorder to do deltamode
		file meters_outputs/meter135.csv;
		interval 1;	
		limit 100000000000;
		property measured_angle_A, measured_angle_B, measured_angle_C, measured_frequency_A, measured_frequency_B, measured_frequency_C, measured_frequency, measured_power.real, measured_power.imag, measured_power_A.real, measured_power_A.imag, measured_power_B.real, measured_power_B.imag, measured_power_C.real, measured_power_C.imag;
	};
	name meter_135;
	groupid metervolts;
	phases ABCN;
	nominal_voltage 2401.7771;
}

object inverter {
	phases ABCN;
	parent meter_135;
	inverter_efficiency .95;
	rated_power 6000;	
        generator_mode CONSTANT_PF;
        generator_status ONLINE;
        inverter_type PWM; 
        flags DELTAMODE;
        dynamic_model_mode PID;
        inverter_convergence_criterion 0.001;
        power_factor 1.0;
        object solar {
	        phases ABCN;
	        generator_status ONLINE;
	        generator_mode SUPPLY_DRIVEN;
	        panel_type SINGLE_CRYSTAL_SILICON;
	        area 250 ft^2;
	        tilt_angle 47.0;
	        efficiency 0.135;
	};
}

object meter { 
    flags DELTAMODE;
    frequency_measure_type PLL;
 	object recorder {                            
		flags DELTAMODE;	//Must explicitly set the recorder to do deltamode
		file meters_outputs/meter149.csv;
		interval 1;	
		limit 100000000000;
		property measured_angle_A, measured_angle_B, measured_angle_C, measured_frequency_A, measured_frequency_B, measured_frequency_C, measured_frequency, measured_power.real, measured_power.imag, measured_power_A.real, measured_power_A.imag, measured_power_B.real, measured_power_B.imag, measured_power_C.real, measured_power_C.imag;
	};
	name meter_149;
	groupid metervolts;
	phases ABCN;
	nominal_voltage 2401.7771;
}

object inverter {
	phases ABCN;
	parent meter_149;
	inverter_efficiency .95;
	rated_power 6000;	
        generator_mode CONSTANT_PF;
        generator_status ONLINE;
        inverter_type PWM; 
        flags DELTAMODE;
        dynamic_model_mode PID;
        inverter_convergence_criterion 0.001;
        power_factor 1.0;
        object solar {
	        phases ABCN;
	        generator_status ONLINE;
	        generator_mode SUPPLY_DRIVEN;
	        panel_type SINGLE_CRYSTAL_SILICON;
	        area 250 ft^2;
	        tilt_angle 47.0;
	        efficiency 0.135;
	};
}

object meter {
	name meter_150;
	groupid metervolts;
	phases ABCN;
	nominal_voltage 2401.7771;
	bustype SWING;
	voltage_A 2401.777120+0.000000j;
	voltage_B -1200.888560-2080.000000j;
	voltage_C -1200.888560+2080.000000j;
	object recorder {
		flags DELTAMODE;
		property measured_power.real,measured_power.imag;
		file testpowermeas.csv;
		interval 1;
	};
		object recorder {                            
		flags DELTAMODE;	//Must explicitly set the recorder to do deltamode
		file meters_outputs/meter150.csv;
		interval 1;	
		limit 100000000000;
		property measured_angle_A, measured_angle_B, measured_angle_C, measured_frequency_A, measured_frequency_B, measured_frequency_C, measured_frequency, measured_power.real, measured_power.imag, measured_power_A.real, measured_power_A.imag, measured_power_B.real, measured_power_B.imag, measured_power_C.real, measured_power_C.imag;
	};
}

object diesel_dg {
    parent meter_150;
    name Gen_Bus_1;
    Rated_V 4160.0;			//"nominal line-line voltage in Volts",
    Rated_VA 100.0 MVA;                   //Arbitrary size("nominal capacity in VA")
    flags DELTAMODE;
    Gen_type DYN_SYNCHRONOUS;
    Exciter_type SEXS;                  //Give it voltage control
    Governor_type DEGOV1;               //Make it try to maintain frequency
    rotor_speed_convergence ${rotor_convergence};
    object recorder {                            
		flags DELTAMODE;	//Must explicitly set the recorder to do deltamode
		file production_swing_outputs/SWINGNODE.csv;
		interval 1;	
		limit 100000000000;
		property power_out_A.real, power_out_A.imag, power_out_B.real, power_out_B.imag, power_out_C.real, power_out_C.imag;
   };    
};

object meter { 
    flags DELTAMODE;
    frequency_measure_type PLL;
 	object recorder {                            
		flags DELTAMODE;	//Must explicitly set the recorder to do deltamode
		file meters_outputs/meter151.csv;
		interval 1;	
		limit 100000000000;
		property measured_angle_A, measured_angle_B, measured_angle_C, measured_frequency_A, measured_frequency_B, measured_frequency_C, measured_frequency, measured_power.real, measured_power.imag, measured_power_A.real, measured_power_A.imag, measured_power_B.real, measured_power_B.imag, measured_power_C.real, measured_power_C.imag;
	};
	name meter_151;
	groupid metervolts;
	phases ABCN;
	nominal_voltage 2401.7771;
}

object inverter {
	phases ABCN;
	parent meter_151;
	inverter_efficiency .95;
	rated_power 6000;	
        generator_mode CONSTANT_PF;
        generator_status ONLINE;
        inverter_type PWM; 
        flags DELTAMODE;
        dynamic_model_mode PID;
        inverter_convergence_criterion 0.001;
        power_factor 1.0;
        object solar {
	        phases ABCN;
	        generator_status ONLINE;
	        generator_mode SUPPLY_DRIVEN;
	        panel_type SINGLE_CRYSTAL_SILICON;
	        area 250 ft^2;
	        tilt_angle 47.0;
	        efficiency 0.135;
	};
}

object meter { 
    flags DELTAMODE;
    frequency_measure_type PLL;
 	object recorder {                            
		flags DELTAMODE;	//Must explicitly set the recorder to do deltamode
		file meters_outputs/meter152.csv;
		interval 1;	
		limit 100000000000;
		property measured_angle_A, measured_angle_B, measured_angle_C, measured_frequency_A, measured_frequency_B, measured_frequency_C, measured_frequency, measured_power.real, measured_power.imag, measured_power_A.real, measured_power_A.imag, measured_power_B.real, measured_power_B.imag, measured_power_C.real, measured_power_C.imag;
	};
	name meter_152;
	groupid metervolts;
	phases ABCN;
	nominal_voltage 2401.7771;
}
object inverter {
	phases ABCN;
	parent meter_152;
	inverter_efficiency .95;
	rated_power 6000;	
        generator_mode CONSTANT_PF;
        generator_status ONLINE;
        inverter_type PWM; 
        flags DELTAMODE;
        dynamic_model_mode PID;
        inverter_convergence_criterion 0.001;
        power_factor 1.0;
        object solar {
	        phases ABCN;
	        generator_status ONLINE;
	        generator_mode SUPPLY_DRIVEN;
	        panel_type SINGLE_CRYSTAL_SILICON;
	        area 250 ft^2;
	        tilt_angle 47.0;
	        efficiency 0.135;
	};
}

object meter { 
    flags DELTAMODE;
    frequency_measure_type PLL;
 	object recorder {                            
		flags DELTAMODE;	//Must explicitly set the recorder to do deltamode
		file meters_outputs/meter160.csv;
		interval 1;	
		limit 100000000000;
		property measured_angle_A, measured_angle_B, measured_angle_C, measured_frequency_A, measured_frequency_B, measured_frequency_C, measured_frequency, measured_power.real, measured_power.imag, measured_power_A.real, measured_power_A.imag, measured_power_B.real, measured_power_B.imag, measured_power_C.real, measured_power_C.imag;
	};
	name meter_160;
	groupid metervolts;
	phases ABCN;
	nominal_voltage 2401.7771;
}

object inverter {
	phases ABCN;
	parent meter_160;
	inverter_efficiency .95;
	rated_power 6000;	
        generator_mode CONSTANT_PF;
        generator_status ONLINE;
        inverter_type PWM; 
        flags DELTAMODE;
        dynamic_model_mode PID;
        inverter_convergence_criterion 0.001;
        power_factor 1.0;
        object solar {
	        phases ABCN;
	        generator_status ONLINE;
	        generator_mode SUPPLY_DRIVEN;
	        panel_type SINGLE_CRYSTAL_SILICON;
	        area 250 ft^2;
	        tilt_angle 47.0;
	        efficiency 0.135;
	};
}

object meter { 
    flags DELTAMODE;
    frequency_measure_type PLL;
 	object recorder {                            
		flags DELTAMODE;	//Must explicitly set the recorder to do deltamode
		file meters_outputs/meter197.csv;
		interval 1;	
		limit 100000000000;
		property measured_angle_A, measured_angle_B, measured_angle_C, measured_frequency_A, measured_frequency_B, measured_frequency_C, measured_frequency, measured_power.real, measured_power.imag, measured_power_A.real, measured_power_A.imag, measured_power_B.real, measured_power_B.imag, measured_power_C.real, measured_power_C.imag;
	};
	name meter_197;
	groupid metervolts;
	phases ABCN;
	nominal_voltage 2401.7771;
}

object inverter {
	phases ABCN;
	parent meter_197;
	inverter_efficiency .95;
	rated_power 6000;	
        generator_mode CONSTANT_PF;
        generator_status ONLINE;
        inverter_type PWM; 
        flags DELTAMODE;
        dynamic_model_mode PID;
        inverter_convergence_criterion 0.001;
        power_factor 1.0;
        object solar {
	        phases ABCN;
	        generator_status ONLINE;
	        generator_mode SUPPLY_DRIVEN;
	        panel_type SINGLE_CRYSTAL_SILICON;
	        area 250 ft^2;
	        tilt_angle 47.0;
	        efficiency 0.135;
	};
}

object meter { 
    flags DELTAMODE;
    frequency_measure_type PLL;
 	object recorder {                            
		flags DELTAMODE;	//Must explicitly set the recorder to do deltamode
		file meters_outputs/meter250.csv;
		interval 1;	
		limit 100000000000;
		property measured_angle_A, measured_angle_B, measured_angle_C, measured_frequency_A, measured_frequency_B, measured_frequency_C, measured_frequency, measured_power.real, measured_power.imag, measured_power_A.real, measured_power_A.imag, measured_power_B.real, measured_power_B.imag, measured_power_C.real, measured_power_C.imag;
	};
	name meter_250;
	groupid metervolts;
	phases ABCN;
	nominal_voltage 2401.7771;
}
object inverter {
	phases ABCN;
	parent meter_250;
	inverter_efficiency .95;
	rated_power 6000;	
        generator_mode CONSTANT_PF;
        generator_status ONLINE;
        inverter_type PWM; 
        flags DELTAMODE;
        dynamic_model_mode PID;
        inverter_convergence_criterion 0.001;
        power_factor 1.0;
        object solar {
	        phases ABCN;
	        generator_status ONLINE;
	        generator_mode SUPPLY_DRIVEN;
	        panel_type SINGLE_CRYSTAL_SILICON;
	        area 250 ft^2;
	        tilt_angle 47.0;
	        efficiency 0.135;
	};
}

object meter { 
    flags DELTAMODE;
    frequency_measure_type PLL;
 	object recorder {                            
		flags DELTAMODE;	//Must explicitly set the recorder to do deltamode
		file meters_outputs/meter300.csv;
		interval 1;	
		limit 100000000000;
		property measured_angle_A, measured_angle_B, measured_angle_C, measured_frequency_A, measured_frequency_B, measured_frequency_C, measured_frequency, measured_power.real, measured_power.imag, measured_power_A.real, measured_power_A.imag, measured_power_B.real, measured_power_B.imag, measured_power_C.real, measured_power_C.imag;
	};
	name meter_300;
	groupid metervolts;
	phases ABCN;
	nominal_voltage 2401.7771;
}
object inverter {
	phases ABCN;
	parent meter_300;
	inverter_efficiency .95;
	rated_power 6000;	
        generator_mode CONSTANT_PF;
        generator_status ONLINE;
        inverter_type PWM; 
        flags DELTAMODE;
        dynamic_model_mode PID;
        inverter_convergence_criterion 0.001;
        power_factor 1.0;
        object solar {
	        phases ABCN;
	        generator_status ONLINE;
	        generator_mode SUPPLY_DRIVEN;
	        panel_type SINGLE_CRYSTAL_SILICON;
	        area 250 ft^2;
	        tilt_angle 47.0;
	        efficiency 0.135;
	};
}

object meter { 
    flags DELTAMODE;
    frequency_measure_type PLL;
 	object recorder {                            
		flags DELTAMODE;	//Must explicitly set the recorder to do deltamode
		file meters_outputs/meter450.csv;
		interval 1;	
		limit 100000000000;
		property measured_angle_A, measured_angle_B, measured_angle_C, measured_frequency_A, measured_frequency_B, measured_frequency_C, measured_frequency, measured_power.real, measured_power.imag, measured_power_A.real, measured_power_A.imag, measured_power_B.real, measured_power_B.imag, measured_power_C.real, measured_power_C.imag;
	};
	name meter_450;
	groupid metervolts;
	phases ABCN;
	nominal_voltage 2401.7771;
}
object inverter {
	phases ABCN;
	parent meter_450;
	inverter_efficiency .95;
	rated_power 6000;	
        generator_mode CONSTANT_PF;
        generator_status ONLINE;
        inverter_type PWM; 
        flags DELTAMODE;
        dynamic_model_mode PID;
        inverter_convergence_criterion 0.001;
        power_factor 1.0;
        object solar {
	        phases ABCN;
	        generator_status ONLINE;
	        generator_mode SUPPLY_DRIVEN;
	        panel_type SINGLE_CRYSTAL_SILICON;
	        area 250 ft^2;
	        tilt_angle 47.0;
	        efficiency 0.135;
	};
}



object meter { 
    flags DELTAMODE;
    frequency_measure_type PLL;
 	object recorder {                            
		flags DELTAMODE;	//Must explicitly set the recorder to do deltamode
		file meters_outputs/meter610.csv;
		interval 1;	
		limit 100000000000;
		property measured_angle_A, measured_angle_B, measured_angle_C, measured_frequency_A, measured_frequency_B, measured_frequency_C, measured_frequency, measured_power.real, measured_power.imag, measured_power_A.real, measured_power_A.imag, measured_power_B.real, measured_power_B.imag, measured_power_C.real, measured_power_C.imag;
	};
	name meter_610;
	groupid metervolts;
	phases ABCN;
	nominal_voltage 2401.7771;
}

object inverter {
	phases ABCN;
	parent meter_610;
	inverter_efficiency .95;
	rated_power 6000;	
        generator_mode CONSTANT_PF;
        generator_status ONLINE;
        inverter_type PWM; 
        flags DELTAMODE;
        dynamic_model_mode PID;
        inverter_convergence_criterion 0.001;
        power_factor 1.0;
        object solar {
	        phases ABCN;
	        generator_status ONLINE;
	        generator_mode SUPPLY_DRIVEN;
	        panel_type SINGLE_CRYSTAL_SILICON;
	        area 250 ft^2;
	        tilt_angle 47.0;
	        efficiency 0.135;
	};
}


// other meters
object meter { 
    flags DELTAMODE;
    frequency_measure_type PLL;
	name meter_901;
	groupid metervolts;
	phases AN;
	nominal_voltage 2401.7771;
}

object meter { 
    flags DELTAMODE;
    frequency_measure_type PLL;
	name meter_2501;
	groupid metervolts;
	phases ACN;
	nominal_voltage 2401.7771;
}

object meter { 
    flags DELTAMODE;
    frequency_measure_type PLL;
	name meter_6101;
	groupid metervolts;
	phases ABCN;
	nominal_voltage 2401.7771;
}

object meter { 
    flags DELTAMODE;
    frequency_measure_type PLL;
	name meter_15001;
	groupid metervolts;
	phases ABCN;
	nominal_voltage 2401.7771;
}

object meter { 
    flags DELTAMODE;
    frequency_measure_type PLL;
	name meter_16001;
	groupid metervolts;
	phases ABCN;
	nominal_voltage 2401.7771;
}

//Pure spot loads

object load {
        flags DELTAMODE;
	name 001;
	groupid metervolts;
	phases ABCN;
	constant_power_A 40000.000000+20000.000000j;
	nominal_voltage 2401.7771;
}


object load {
        flags DELTAMODE;
	name 002;
	groupid metervolts;
	phases BN;
	constant_power_B 330000.000000+10000.000000j;
	nominal_voltage 2401.7771;
}

object load {
        flags DELTAMODE;
	name 004;
	groupid metervolts;
	phases CN;
	constant_power_C 40000.000000+20000.000000j;
	nominal_voltage 2401.7771;
}

object load {
        flags DELTAMODE;
	name 005;
	groupid metervolts;
	phases CN;
	constant_current_C -0.557814+9.293330j;
	nominal_voltage 2401.7771;
}

object load {
        flags DELTAMODE;
	name 006;
	groupid metervolts;
	phases CN;
	constant_impedance_C 115.370667+57.685333j;
	nominal_voltage 2401.7771;
}

object load {
        flags DELTAMODE;
	name 007;
	groupid metervolts;
	phases ABCN;
	constant_power_A 330000.000000+10000.000000j;
	nominal_voltage 2401.7771;
}

object load {
    flags DELTAMODE;
	name 009;
	groupid metervolts;
	phases AN;
	constant_power_A 40000.000000+20000.000000j;
	nominal_voltage 2401.7771;
}

object load {
        flags DELTAMODE;
	name 0010;
	groupid metervolts;
	phases AN;
	constant_current_A 8.327167-4.163584j;
	nominal_voltage 2401.7771;
}

object load {
        flags DELTAMODE;
	name 0011;
	groupid metervolts;
	phases AN;
	constant_impedance_A 115.370667+57.685333j;
	nominal_voltage 2401.7771;
}

object load {
        flags DELTAMODE;
	name 0012;
	groupid metervolts;
	phases BN;
	constant_power_B 330000.000000+10000.000000j;
	nominal_voltage 2401.7771;
}

object load {
        flags DELTAMODE;
	name 0016;
	groupid metervolts;
	phases CN;
	constant_power_C 40000.000000+20000.000000j;
	nominal_voltage 2401.7771;
}

object load {
        flags DELTAMODE;
	name 0017;
	groupid metervolts;
	phases CN;
	constant_power_C 20000.000000+10000.000000j;
	nominal_voltage 2401.7771;
}

object load {
        flags DELTAMODE;
	name 0019;
	groupid metervolts;
	phases AN;
	constant_power_A 40000.000000+20000.000000j;
	nominal_voltage 2401.7771;
}

object load {
        flags DELTAMODE;
	name 0020;
	groupid metervolts;
	phases AN;
	constant_current_A 16.654335-8.327167j;
	nominal_voltage 2401.7771;
}

object load {
        flags DELTAMODE;
	name 0022;
	groupid metervolts;
	phases BN;
	constant_impedance_B 115.370667+57.685333j;
	nominal_voltage 2401.7771;
}

object load {
        flags DELTAMODE;
	name 0024;
	groupid metervolts;
	phases CN;
	constant_power_C 40000.000000+20000.000000j;
	nominal_voltage 2401.7771;
}

object load {
        flags DELTAMODE;
	name 0028;
	groupid metervolts;
	phases ABCN;
	constant_current_A 16.654335-8.327167j;
	nominal_voltage 2401.7771;
}

object load {
        flags DELTAMODE;
	name 0029;
	groupid metervolts;
	phases ABCN;
	constant_impedance_A 115.370667+57.685333j;
	nominal_voltage 2401.7771;
}

object load {
        flags DELTAMODE;
	name 0030;
	groupid metervolts;
	phases ABCN;
	constant_power_C 40000.000000+20000.000000j;
	nominal_voltage 2401.7771;
}

object load {
        flags DELTAMODE;
	name 0031;
	groupid metervolts;
	phases CN;
	constant_power_C 20000.000000+10000.000000j;
	nominal_voltage 2401.7771;
}

object load {
        flags DELTAMODE;
	name 0032;
	groupid metervolts;
	phases CN;
	constant_power_C 20000.000000+10000.000000j;
	nominal_voltage 2401.7771;
}

object load {
        flags DELTAMODE;
	name 0033;
	groupid metervolts;
	phases AN;
	constant_current_A 16.654335-8.327167j;
	nominal_voltage 2401.7771;
}

object load {
        flags DELTAMODE;
	name 0034;
	groupid metervolts;
	phases CN;
	constant_impedance_C 115.370667+57.685333j;
	nominal_voltage 2401.7771;
}

object load {
        flags DELTAMODE;
	name 0035;
	groupid metervolts;
	phases ABCD;
	constant_power_A 40000.000000+20000.000000j;
	nominal_voltage 2401.7771;
}

object load {
        flags DELTAMODE;
	name 0037;
	groupid metervolts;
	phases AN;
	constant_impedance_A 115.370667+57.685333j;
	nominal_voltage 2401.7771;
}

object load {
        flags DELTAMODE;
	name 0038;
	groupid metervolts;
	phases BN;
	constant_current_B -7.769353-5.129747j;
	nominal_voltage 2401.7771;
}

object load {
        flags DELTAMODE;
	name 0039;
	groupid metervolts;
	phases BN;
	constant_power_B 330000.000000+10000.000000j;
	nominal_voltage 2401.7771;
}

object load {
        flags DELTAMODE;
	name 0041;
	groupid metervolts;
	phases CN;
	constant_power_C 20000.000000+10000.000000j;
	nominal_voltage 2401.7771;
}

object load {
        flags DELTAMODE;
	name 0042;
	groupid metervolts;
	phases ABCN;
	constant_power_A 330000.000000+10000.000000j;
	nominal_voltage 2401.7771;
}

object load {
        flags DELTAMODE;
	name 0043;
	groupid metervolts;
	phases BN;
	constant_impedance_B 115.370667+57.685333j;
	nominal_voltage 2401.7771;
}

object load {
        flags DELTAMODE;
	name 0045;
	groupid metervolts;
	phases AN;
	constant_current_A 8.327167-4.163584j;
	nominal_voltage 2401.7771;
}

object load {
        flags DELTAMODE;
	name 0046;
	groupid metervolts;
	phases AN;
	constant_power_A 330000.000000+10000.000000j;
	nominal_voltage 2401.7771;
}

object load {
        flags DELTAMODE;
	name 0047;
	groupid metervolts;
	phases ABCN;
	constant_current_A 14.572543-10.408959j;
	constant_current_B -16.300695-7.415713j;
	constant_current_C 1.728152+17.824672j;
	nominal_voltage 2401.7771;
}

object load {
        flags DELTAMODE;
	name 0048;
	groupid metervolts;
	phases ABCN;
	constant_impedance_A 54.567207+38.976577j;
	constant_impedance_B 54.567207+38.976577j;
	constant_impedance_C 54.567207+38.976577j;
	nominal_voltage 2401.7771;
}

object load {
        flags DELTAMODE;
	name 0049;
	groupid metervolts;
	phases ABCN;
	constant_power_A 35000.000000+25000.000000j;
	constant_power_B 70000.000000+50000.000000j;
	constant_power_C 35000.000000+20000.000000j;
	nominal_voltage 2401.7771;
	// object recorder {
		// flags DELTAMODE;
		// property "voltage_A,voltage_B,voltage_C";
		// interval 1;
		// file 00voltage_output.csv;
	// };
}

object load {
        flags DELTAMODE;
	name 0050;
	groupid metervolts;
	phases ABCN;
	constant_power_C 40000.000000+20000.000000j;
	nominal_voltage 2401.7771;
}

object load {
        flags DELTAMODE;
	name 0051;
	groupid metervolts;
	phases ABCN;
	constant_power_A 330000.000000+10000.000000j;
	nominal_voltage 2401.7771;
}

object load {
        flags DELTAMODE;
	name 0052;
	groupid metervolts;
	phases ABCN;
	constant_power_A 40000.000000+20000.000000j;
	nominal_voltage 2401.7771;
}

object load {
        flags DELTAMODE;
	name 0053;
	groupid metervolts;
	phases ABCN;
	constant_power_A 40000.000000+20000.000000j;
	nominal_voltage 2401.7771;
}

object load {
        flags DELTAMODE;
	name 0055;
	groupid metervolts;
	phases ABCN;
	constant_impedance_A 230.741333+115.370667j;
	nominal_voltage 2401.7771;
}

object load {
        flags DELTAMODE;
	name 0056;
	groupid metervolts;
	phases ABCN;
	constant_power_B 330000.000000+10000.000000j;
	nominal_voltage 2401.7771;
}

object load {
        flags DELTAMODE;
	name 0058;
	groupid metervolts;
	phases BN;
	constant_current_B -7.769353-5.129747j;
	nominal_voltage 2401.7771;
}

object load {
        flags DELTAMODE;
	name 0059;
	groupid metervolts;
	phases BN;
	constant_power_B 330000.000000+10000.000000j;
	nominal_voltage 2401.7771;
}

object load {
        flags DELTAMODE;
	name 0060;
	groupid metervolts;
	phases ABCN;
	constant_power_A 330000.000000+10000.000000j;
	nominal_voltage 2401.7771;
}

object load {
        flags DELTAMODE;
	name 0062;
	groupid metervolts;
	phases ABCN;
	constant_impedance_C 115.370667+57.685333j;
	nominal_voltage 2401.7771;
}

object load {
        flags DELTAMODE;
	name 0063;
	groupid metervolts;
	phases ABCN;
	constant_power_A 40000.000000+20000.000000j;
	nominal_voltage 2401.7771;
}

object load {
        flags DELTAMODE;
	name 0064;
	groupid metervolts;
	phases ABCN;
...